Version 4
SHEET 1 1648 680
WIRE 80 128 80 80
WIRE 80 256 80 208
FLAG 80 256 0
FLAG 80 80 Vin
SYMBOL voltage 80 112 R0
SYMATTR InstName V1
SYMATTR Value wavefile ".\in.wav" chan=1
TEXT 256 104 Left 2 !.tran 1ms
